######################################################################################################
[Config Wireless01]
description = Two hosts communicating wirelessly
network = WirelessAD
sim-time-limit = 101s

num-rngs = 10
repeat=10
seed-set = ${repetition}

check-signals=false

*.host*.networkLayer.arpType = "GlobalARP"

*.hostA.numUdpApps = 1
*.hostA.udpApp[0].typename = "UDPBasicApp"
#*.hostA.udpApp[0].typename = "UDPBasicBurst"

*.hostA.udpApp[0].destAddresses = "hostB"
*.hostA.udpApp[0].destPort = 5000
*.hostA.udpApp[0].messageLength = 100B
*.hostA.udpApp[0].sendInterval = exponential(0.002s)
*.hostA.udpApp[0].packetName = "UDPData"
#*.hostA.udpApp[0].startTime = 0.1s#@Anjana

*.hostC.numUdpApps = 1
*.hostC.udpApp[0].typename = "UDPBasicApp"
*.hostC.udpApp[0].destAddresses = "hostB"
*.hostC.udpApp[0].destPort = 5000
*.hostC.udpApp[0].messageLength = 100B
*.hostC.udpApp[0].sendInterval = exponential(0.002s)
*.hostC.udpApp[0].packetName = "UDPData"
#*.hostC.udpApp[0].startTime = 0.1s#@Anjana

*.hostB.numUdpApps = 1
*.hostB.udpApp[0].typename = "UDPSink"
*.hostB.udpApp[0].localPort = 5000


*.host*.wlan[0].typename = "IdealWirelessNic"
*.host*.wlan[0].mac.useAck = false
*.host*.wlan[0].mac.fullDuplex = false
*.host*.wlan[0].radio.transmitter.communicationRange = 500m
*.host*.wlan[0].radio.receiver.ignoreInterference = true


*.host*.**.bitrate = 11Mbps


*.visualizer.queueVisualizer.displayQueues = true

*.visualizer.interfaceTableVisualizer.displayInterfaceTables = true
*.visualizer.interfaceTableVisualizer.interfaceFilter = "wlan*"
*.visualizer.interfaceTableVisualizer.format = "%N\n%n"
*.visualizer.interfaceTableVisualizer.displacementHint = "left"

*.visualizer.routingTableVisualizer.displayRoutingTables = true
*.visualizer.routingTableVisualizer.destinationFilter = "hostB"

*.visualizer.linkBreakVisualizer.displayLinkBreaks = true

*.visualizer.packetDropVisualizer.displayPacketDrops = true
*.visualizer.packetDropVisualizer.packetFilter = "UDPData*"

*.visualizer.mediumVisualizer.signalPropagationAnimationSpeed = 0.000001
*.visualizer.mediumVisualizer.signalTransmissionAnimationSpeed = 0.0005
*.visualizer.mediumVisualizer.displayTransmissions = true # enables displaying radio signals propagating through the radio medium
*.visualizer.mediumVisualizer.displayReceptions = true # enables displaying radio signals propagating through the radio medium
*.visualizer.mediumVisualizer.displaySignals = true # enables displaying radio signals propagating through the radio medium




######################################################################################################
[Config Wireless02]
description = Setting up some animations
extends = Wireless01

*.hostA.wlan[0].radio.displayCommunicationRange = true
*.hostC.wlan[0].radio.displayCommunicationRange = true


*.visualizer.sceneVisualizer.descriptionFigure = "title"

*.visualizer.mediumVisualizer.displaySignals = true

*.visualizer.physicalLinkVisualizer.displayLinks = true
*.visualizer.physicalLinkVisualizer.packetFilter = "UDPData*"

######################################################################################################
[Config Wireless03]
description = Adding more nodes and decreasing the communication range
extends = Wireless02
network = WirelessD

*.host*.wlan[0].radio.transmitter.communicationRange = 150m

*.hostR1.wlan[0].radio.displayCommunicationRange = true

*.hostR*.numUdpApps = 1
*.hostR*.udpApp[0].typename = "UDPBasicApp"


*.hostR*.udpApp[0].destAddresses = "hostB"
*.hostR*.udpApp[0].destPort = 5000
*.hostR*.udpApp[0].messageLength = 100B
*.hostR*.udpApp[0].sendInterval = exponential(30s)
*.hostR*.udpApp[0].packetName = "UDPData"


######################################################################################################
[Config Wireless04]
description = Setting up static routing
extends = Wireless03
#network = WirelessD
*.host*.forwarding = true

*.configurator.config = xml("<config><interface hosts='**' address='10.0.0.x' netmask='255.255.255.0'/><autoroute metric='errorRate'/></config>")
*.configurator.optimizeRoutes = false
*.host*.routingTable.netmaskRoutes = ""

*.visualizer.dataLinkVisualizer.displayLinks = true
*.visualizer.dataLinkVisualizer.packetFilter = "UDPData*"
*.visualizer.networkRouteVisualizer.displayRoutes = true
*.visualizer.networkRouteVisualizer.packetFilter = "UDPData*"


######################################################################################################
[Config Wireless05]
description = Taking interference into account
extends = Wireless04

*.host*.wlan[0].radio.receiver.ignoreInterference = false
*.host*.wlan[0].radio.transmitter.interferenceRange = 300m

*.hostA.wlan[0].radio.displayInterferenceRange = true

*.visualizer.dataLinkVisualizer.packetFilter = ""


######################################################################################################
[Config Wireless06]
description = Using CSMA to better utilize the medium
extends = Wireless05

*.host*.wlan[0].typename = "WirelessNic"
*.host*.wlan[0].radioType = "IdealRadio"
*.host*.wlan[0].macType = "CsmaCaMac"



######################################################################################################
[Config Wireless07]
description = Turning on ACKs in CSMA
extends = Wireless06

*.host*.wlan[0].mac.useAck = true


######################################################################################################
[Config Wireless08]
description = Modeling energy consumption
extends = Wireless07#ignoring ack

**.hasStatus=true
**.displayEnergyStorages = true

*.host*.wlan[0].radio.energyConsumerType = "StateBasedEpEnergyConsumer"
*.host*.wlan[0].radio.energyConsumer.offPowerConsumption = 0mW
*.host*.wlan[0].radio.energyConsumer.sleepPowerConsumption = 0.1mW
*.host*.wlan[0].radio.energyConsumer.switchingPowerConsumption = 1mW
*.host*.wlan[0].radio.energyConsumer.receiverIdlePowerConsumption = 2mW
*.host*.wlan[0].radio.energyConsumer.receiverBusyPowerConsumption = 5mW
*.host*.wlan[0].radio.energyConsumer.receiverReceivingPowerConsumption = 10mW#7mW or 8mW
*.host*.wlan[0].radio.energyConsumer.transmitterIdlePowerConsumption = 2mW

*.host*.wlan[0].radio.energyConsumer.transmitterTransmittingPowerConsumption = 100mW#10mW




#*.host*.energyStorageType = "IdealEpEnergyStorage"


*.host*.energyStorageType = "SimpleEpEnergyStorage"
**.energyStorage.nominalCapacity = 100J # maximum capacity0.05J
**.energyStorage.initialCapacity = uniform(0J, this.nominalCapacity)

*.host[*].energyManagementType = "SimpleEpEnergyManagement"
*.host[*].energyManagement.nodeStartCapacity = 0.05J # start threshold0.025J
*.host[*].energyManagement.nodeShutdownCapacity = 0J # shutdown threshold


#**.energyManagement.nodeShutdownCapacity = 0J
#**.energyManagement.nodeStartCapacity = 0.025J




*.host*.wlan[0].radio.displayInterferenceRange = false
*.hostR1.wlan[0].radio.displayCommunicationRange = false

*.visualizer.mediumVisualizer.displaySignals = false


######################################################################################################
[Config Wireless09]
description = Configuring node movements
extends = Wireless08

*.hostR*.mobilityType = "LinearMobility"
*.hostR*.mobility.speed = 12mps
*.hostR*.mobility.angle = 270deg

*.host*.wlan[0].mac.maxQueueSize = 10

*.visualizer.mobilityVisualizer.displayOrientations = true
*.visualizer.mobilityVisualizer.displayVelocities = true
*.visualizer.mobilityVisualizer.displayMovementTrails = true

######################################################################################################
[Config Wireless10]
description = Configuring ad-hoc routing (AODV)
extends = Wireless08

*.configurator.addStaticRoutes = false

*.hostType = "AODVRouter"

*.hostB.wlan[0].radio.displayCommunicationRange = true

*.visualizer.dataLinkVisualizer.packetFilter = "AODV*"


######################################################################################################
[Config Wireless10a]
description = Configuring ad-hoc routing (AODV) with mal.node
extends = Wireless10


*.hostR2.networkLayer.ip.maliciousState=0
*.hostR2.networkLayer.ip.maliciousDropProbability = 0.4

#chk if reqd
*.visualizer.interfaceTableVisualizer.interfaceFilter = "wlan*"

#adding more channel params

#*.host*.wlan[0].mac.maxQueueSize = 10



######################################################################################################
[Config Wireless11]
description = Adding obstacles to the environment
extends = Wireless10a
network = WirelessCD

*.host*.mobility.initialZ = 1.7m

#*.physicalEnvironment.config = xmldoc("walls.xml")
#*.radioMedium.obstacleLossType = "IdealObstacleLoss"

######################################################################################################
[Config Wireless12]
description = Changing to a more realistic radio model
extends = Wireless11

*.mediumType = "APSKScalarRadioMedium"
#
*.radioMedium.backgroundNoise.power = -90dBm
*.radioMedium.mediumLimitCache.carrierFrequency = 2.5GHz
#
*.host*.wlan[0].radioType = "APSKScalarRadio"
*.host*.wlan[0].radio.carrierFrequency = 2.5GHz
*.host*.wlan[0].radio.bandwidth = 2MHz
*.host*.wlan[0].radio.transmitter.power = 20mW#1.4mW
*.host*.wlan[0].radio.transmitter.preambleDuration = 10us
*.host*.wlan[0].radio.transmitter.headerBitLength = 0b
*.host*.wlan[0].radio.receiver.sensitivity = -114dBm#-85dBm
*.host*.wlan[0].radio.receiver.energyDetection =-114dBm #-85dBm
*.host*.wlan[0].radio.receiver.snirThreshold = 4dB

######################################################################################################
[Config Wireless13]
description = Configuring a more accurate pathloss model
extends = Wireless12


*.physicalEnvironment.groundType="FlatGround"
*.flatground.elevation=0m
*.radioMedium.pathLossType="RayleighFading"

*.host[*].wlan[0].radio.carrierFrequency = 2.5GHz

######################################################################################################
[Config Wireless14]
description = Introducing antenna gain
extends = Wireless13

*.host*.wlan[0].radio.antennaType = "ConstantGainAntenna"
*.host*.wlan[0].radio.antenna.gain = 3dB

######################################################################################################

[Config AODVUU]
description = Configuring a more accurate pathloss model
extends = Wireless13

**.routingProtocol = "AODVUU"
**.log_to_file = false
**.hello_jittering = true
**.optimized_hellos = true
**.expanding_ring_search = true
**.local_repair = true
**.rreq_gratuitous = true
#**.debug = false
**.rt_log_interval = 0
**.unidir_hack = 0
**.internet_gw_mode = 0
**.receive_n_hellos = 1
**.ratelimit = 1000
**.llfeedback = false# //1000
**.wait_on_reboot = 0
**.active_timeout = 6000ms
**.internet_gw_address = "0.0.0.0"

[Config AODVUU_Malicious_1]
extends = Wireless03
**.maliciousState = 1
**.maliciousDropProbability = 0.25